Reference
     RDKit          3D

  0  0  0  0  0  0  0  0  0  0999 V3000
M  V30 BEGIN CTAB
M  V30 COUNTS 53 57 0 0 1
M  V30 BEGIN ATOM
M  V30 1 N 138.961000 157.052000 143.281000 0
M  V30 2 C 138.698000 155.890000 142.632000 0
M  V30 3 O 138.525000 154.827000 143.205000 0
M  V30 4 C 139.079000 157.248000 144.678000 0
M  V30 5 N 138.639000 155.972000 141.286000 0
M  V30 6 C 139.824000 158.323000 145.147000 0
M  V30 7 C 138.639000 156.275000 145.571000 0
M  V30 8 C 138.436000 154.794000 140.445000 0
M  V30 9 C 139.103000 156.253000 146.871000 0
M  V30 10 C 140.159000 158.397000 146.485000 0
M  V30 11 C 138.950000 155.233000 139.105000 0
M  V30 12 C 139.787000 157.369000 147.319000 0
M  V30 13 F 139.929000 157.553000 148.652000 0
M  V30 14 C 138.785000 155.105000 147.726000 0
M  V30 15 C 138.549000 156.669000 139.065000 0
M  V30 16 N 137.619000 154.531000 147.488000 0
M  V30 17 C 139.516000 154.826000 148.923000 0
M  V30 18 C 138.805000 157.166000 140.469000 0
M  V30 19 C 137.128000 153.679000 148.391000 0
M  V30 20 N 135.952000 153.072000 148.374000 0
M  V30 21 N 137.858000 153.313000 149.516000 0
M  V30 22 C 139.062000 153.913000 149.785000 0
M  V30 23 C 135.930000 152.260000 149.480000 0
M  V30 24 C 137.102000 152.357000 150.154000 0
M  V30 25 N 137.708000 151.510000 151.081000 0
M  V30 26 C 138.705000 150.648000 150.423000 0
M  V30 27 C 136.740000 150.756000 151.888000 0
M  V30 28 C 137.448000 149.788000 152.799000 0
M  V30 29 C 139.317000 149.687000 151.411000 0
M  V30 30 O 138.321000 148.921000 152.079000 0
M  V30 31 H 139.166613 157.860522 142.710894 0
M  V30 32 H 140.169956 159.095016 144.478343 0
M  V30 33 H 138.000676 155.466790 145.263420 0
M  V30 34 H 137.371752 154.570951 140.376957 0
M  V30 35 H 138.989168 153.926066 140.804748 0
M  V30 36 H 140.684585 159.258102 146.869059 0
M  V30 37 H 138.543519 154.646247 138.285943 0
M  V30 38 H 140.024678 155.114048 139.061485 0
M  V30 39 H 137.492894 156.764292 138.823921 0
M  V30 40 H 139.059746 157.292822 138.347844 0
M  V30 41 H 140.448004 155.326974 149.139143 0
M  V30 42 H 139.832971 157.522900 140.544342 0
M  V30 43 H 138.096277 157.948386 140.735132 0
M  V30 44 H 139.573516 153.629905 150.693933 0
M  V30 45 H 135.138927 151.558229 149.679978 0
M  V30 46 H 139.504972 151.246867 149.987595 0
M  V30 47 H 138.241430 150.091234 149.606730 0
M  V30 48 H 136.054376 150.203281 151.246495 0
M  V30 49 H 136.145721 151.450070 152.484215 0
M  V30 50 H 136.702981 149.163232 153.286963 0
M  V30 51 H 137.983184 150.308416 153.596139 0
M  V30 52 H 139.944844 150.213728 152.133056 0
M  V30 53 H 139.977039 148.996220 150.885761 0
M  V30 END ATOM
M  V30 BEGIN BOND
M  V30 1 1 2 1
M  V30 2 2 3 2
M  V30 3 1 4 1
M  V30 4 1 5 2
M  V30 5 2 6 4
M  V30 6 1 7 4
M  V30 7 1 8 5
M  V30 8 2 9 7
M  V30 9 1 10 6
M  V30 10 1 11 8
M  V30 11 1 12 9
M  V30 12 2 12 10
M  V30 13 1 13 12
M  V30 14 1 14 9
M  V30 15 1 15 11
M  V30 16 2 16 14
M  V30 17 1 17 14
M  V30 18 1 18 5
M  V30 19 1 18 15
M  V30 20 1 19 16
M  V30 21 2 20 19
M  V30 22 1 21 19
M  V30 23 2 22 17
M  V30 24 1 22 21
M  V30 25 1 23 20
M  V30 26 1 24 21
M  V30 27 2 24 23
M  V30 28 1 25 24
M  V30 29 1 26 25
M  V30 30 1 27 25
M  V30 31 1 28 27
M  V30 32 1 29 26
M  V30 33 1 30 28
M  V30 34 1 30 29
M  V30 35 1 31 1
M  V30 36 1 32 6
M  V30 37 1 33 7
M  V30 38 1 34 8
M  V30 39 1 35 8
M  V30 40 1 36 10
M  V30 41 1 37 11
M  V30 42 1 38 11
M  V30 43 1 39 15
M  V30 44 1 40 15
M  V30 45 1 41 17
M  V30 46 1 42 18
M  V30 47 1 43 18
M  V30 48 1 44 22
M  V30 49 1 45 23
M  V30 50 1 46 26
M  V30 51 1 47 26
M  V30 52 1 48 27
M  V30 53 1 49 27
M  V30 54 1 50 28
M  V30 55 1 51 28
M  V30 56 1 52 29
M  V30 57 1 53 29
M  V30 END BOND
M  V30 END CTAB
M  END
>  <i_m_stars>  (8) 
0

>  <b_ppw_created_disulfur>  (8) 
1

>  <b_ppw_prepared>  (8) 
1

>  <r_i_Bend_Energy-S-OPLS>  (8) 
658.91466497518195

>  <r_i_Dihedral_Energy-S-OPLS>  (8) 
444.203679676251

>  <r_i_El-14_Energy-S-OPLS>  (8) 
-964.63021076020698

>  <r_i_Electrostatic_Energy-S-OPLS>  (8) 
-22598.3952098841

>  <r_i_LJ-14_Energy-S-OPLS>  (8) 
1194.3988264366101

>  <r_i_Max_Derivative-S-OPLS>  (8) 
1.8388194579135899

>  <r_i_Potential_Energy-S-OPLS>  (8) 
-22985.248860302399

>  <r_i_RMS_Derivative-S-OPLS>  (8) 
0.053648834418610798

>  <r_i_Stretch_Energy-S-OPLS>  (8) 
24.307022505006699

>  <r_i_Van_der_Waals_Energy-S-OPLS>  (8) 
-1744.04763325108

>  <r_i_target_temperature>  (8) 
298

>  <r_ppw_preprocess_pH>  (8) 
7.2000000000000002

>  <r_psp_Prime_Coulomb>  (8) 
-6936.0217720000001

>  <r_psp_Prime_Covalent>  (8) 
1237.3286559999999

>  <r_psp_Prime_Energy>  (8) 
-7036.4845979109996

>  <r_psp_Prime_Solv_GB>  (8) 
-906.00038500000005

>  <r_psp_Prime_Solv_SA>  (8) 
-13.757785

>  <r_psp_Prime_vdW>  (8) 
-418.03330999999997

>  <s_m_Source_File>  (8) 
Hypha_WT_grant_prep_TB-out.maegz

>  <s_m_Source_Path>  (8) 
C:\Users\cmendozamartinez001\OneDrive - University of Dundee\Desktop\DUNDEE_projects\Proteasome\Hypha_WT_grant_prep_TB

>  <s_m_entry_id>  (8) 
53

>  <s_m_entry_name>  (8) 
Structure53

>  <s_m_job_name>  (8) 
Hypha_WT_grant_prep_TB

>  <s_pdb_PDB_format_version>  (8) 
3.0

>  <s_ppw_het_states>  (8) 
eJxdk0tuhDAQRK+CvCaRq/nnKiNuMMouq9HcPaY81gNYoNJz46q2m1dS+uke5dG0bX2X9757aM4ZKWQgB+SInJAzckGuSNyEm3ATbsJNuAk34SbchJtwC9wCt8AtcAvcArfALXALux36c5b1GOXVBqKBuubTjQsYqAiDkYoKJioGg/kGdAKjK1bAZLCw6WywUbF4j3wHp+hrq2h7uDkR3V/7MhtwdNHLB9CL7tHl6Md1NuDoga1qsPUO6EVOGqccW9vjCmjOxQbBZNShaBVOeozGFdCL1zwbDdToNGfpkWlgARTylb9LxlfSXH5P6xS5yMrToIpz1rvvfv+ez/re9/c/g8nJVQ==

>  <s_ppw_prepared_with_version>  (8) 
2022-4

$$$$